
     RDKit          3D

 42 44  0  0  0  0  0  0  0  0999 V2000
    5.9630   26.2830  191.4540 C   0  0  0  0  0  0  0  0  0  0  0  0
    4.7420   26.3120  190.5760 C   0  0  0  0  0  0  0  0  0  0  0  0
    3.8210   25.4950  190.8050 O   0  0  0  0  0  0  0  0  0  0  0  0
    4.6040   27.2560  189.4780 C   0  0  0  0  0  0  0  0  0  0  0  0
    3.4660   27.8830  189.2170 C   0  0  0  0  0  0  0  0  0  0  0  0
    2.2590   27.6960  189.9300 O   0  0  0  0  0  1  0  0  0  0  0  0
    3.6770   28.7740  188.0940 C   0  0  0  0  0  0  0  0  0  0  0  0
    2.7990   29.5250  187.5640 O   0  0  0  0  0  0  0  0  0  0  0  0
    5.0120   28.6550  187.7040 N   0  0  0  0  0  0  0  0  0  0  0  0
    5.7240   29.3710  186.6780 C   0  0  0  0  0  0  0  0  0  0  0  0
    6.5960   30.3870  187.0770 C   0  0  0  0  0  0  0  0  0  0  0  0
    7.3000   31.1140  186.1430 C   0  0  0  0  0  0  0  0  0  0  0  0
    7.1490   30.8430  184.8010 C   0  0  0  0  0  0  0  0  0  0  0  0
    8.0510   31.7820  183.6220 Cl  0  0  0  0  0  0  0  0  0  0  0  0
    6.2820   29.8330  184.4030 C   0  0  0  0  0  0  0  0  0  0  0  0
    5.5820   29.1150  185.3560 C   0  0  0  0  0  0  0  0  0  0  0  0
    4.7390   28.1330  184.9310 F   0  0  0  0  0  0  0  0  0  0  0  0
    5.6520   27.6610  188.5450 C   0  0  2  0  0  0  0  0  0  0  0  0
    6.0560   26.5680  187.5820 C   0  0  0  0  0  0  0  0  0  0  0  0
    5.1080   25.4190  187.4860 C   0  0  0  0  0  0  0  0  0  0  0  0
    5.8080   24.1060  187.1970 C   0  0  0  0  0  0  0  0  0  0  0  0
    6.8980   24.2030  186.1760 C   0  0  0  0  0  0  0  0  0  0  0  0
    7.7670   25.4360  186.3320 C   0  0  0  0  0  0  0  0  0  0  0  0
    7.4460   26.0380  187.7300 C   0  0  0  0  0  0  0  0  0  0  0  0
    5.6555   26.2903  192.5101 H   0  0  0  0  0  0  0  0  0  0  0  0
    6.5419   25.3709  191.2470 H   0  0  0  0  0  0  0  0  0  0  0  0
    6.5846   27.1666  191.2470 H   0  0  0  0  0  0  0  0  0  0  0  0
    6.7214   30.6083  188.1472 H   0  0  0  0  0  0  0  0  0  0  0  0
    7.9835   31.9118  186.4690 H   0  0  0  0  0  0  0  0  0  0  0  0
    6.1527   29.6052  183.3346 H   0  0  0  0  0  0  0  0  0  0  0  0
    6.5369   27.9739  189.1186 H   0  0  0  0  0  0  0  0  0  0  0  0
    6.0174   27.1318  186.6382 H   0  0  0  0  0  0  0  0  0  0  0  0
    4.5681   25.3275  188.4400 H   0  0  0  0  0  0  0  0  0  0  0  0
    4.4235   25.6219  186.6492 H   0  0  0  0  0  0  0  0  0  0  0  0
    6.2463   23.7351  188.1352 H   0  0  0  0  0  0  0  0  0  0  0  0
    5.0476   23.4270  186.7838 H   0  0  0  0  0  0  0  0  0  0  0  0
    7.5380   23.3128  186.2647 H   0  0  0  0  0  0  0  0  0  0  0  0
    6.4128   24.2724  185.1912 H   0  0  0  0  0  0  0  0  0  0  0  0
    8.8302   25.1599  186.2736 H   0  0  0  0  0  0  0  0  0  0  0  0
    7.5656   26.1645  185.5328 H   0  0  0  0  0  0  0  0  0  0  0  0
    7.4885   25.2627  188.5092 H   0  0  0  0  0  0  0  0  0  0  0  0
    8.1655   26.8126  188.0340 H   0  0  0  0  0  0  0  0  0  0  0  0
  1  2  1  0
  2  3  2  0
  2  4  1  0
  4  5  2  0
  5  6  1  0
  5  7  1  0
  7  8  2  0
  7  9  1  0
  9 10  1  0
 10 11  2  0
 11 12  1  0
 12 13  2  0
 13 14  1  0
 13 15  1  0
 15 16  2  0
 16 17  1  0
  9 18  1  0
 18 19  1  0
 19 20  1  0
 20 21  1  0
 21 22  1  0
 22 23  1  0
 23 24  1  0
 18  4  1  0
 24 19  1  0
 16 10  1  0
  1 25  1  0
  1 26  1  0
  1 27  1  0
 11 28  1  0
 12 29  1  0
 15 30  1  0
 18 31  1  1
 19 32  1  0
 20 33  1  0
 20 34  1  0
 21 35  1  0
 21 36  1  0
 22 37  1  0
 22 38  1  0
 23 39  1  0
 23 40  1  0
 24 41  1  0
 24 42  1  0
M  CHG  1   6  -1
M  END
$$$$

     RDKit          3D

 35 38  0  0  0  0  0  0  0  0999 V2000
    1.9960   26.4930  192.6850 N   0  0  0  0  0  0  0  0  0  0  0  0
    2.6000   26.5480  191.3910 C   0  0  0  0  0  0  0  0  0  0  0  0
    3.4670   25.6630  190.8400 N   0  0  0  0  0  0  0  0  0  0  0  0
    3.7930   26.0990  189.5880 C   0  0  0  0  0  0  0  0  0  0  0  0
    4.5810   25.6340  188.6080 N   0  0  0  0  0  0  0  0  0  0  0  0
    4.7260   26.2810  187.4150 C   0  0  0  0  0  0  0  0  0  0  0  0
    5.5400   25.6780  186.3410 C   0  0  0  0  0  0  0  0  0  0  0  0
    6.9600   26.0850  186.1490 C   0  0  0  0  0  0  0  0  0  0  0  0
    6.7020   24.8400  186.9260 C   0  0  0  0  0  0  0  0  0  0  0  0
    4.0460   27.4540  187.2040 C   0  0  0  0  0  0  0  0  0  0  0  0
    4.1300   28.2850  186.0020 C   0  0  0  0  0  0  0  0  0  0  0  0
    5.1530   29.3300  185.9110 C   0  0  0  0  0  0  0  0  0  0  0  0
    5.3840   30.1110  187.0540 C   0  0  0  0  0  0  0  0  0  0  0  0
    6.2900   31.1210  187.0740 C   0  0  0  0  0  0  0  0  0  0  0  0
    7.0270   31.4210  185.9470 C   0  0  0  0  0  0  0  0  0  0  0  0
    8.1900   32.7280  185.9260 Cl  0  0  0  0  0  0  0  0  0  0  0  0
    6.8330   30.6830  184.8090 C   0  0  0  0  0  0  0  0  0  0  0  0
    7.7460   31.0050  183.3470 Cl  0  0  0  0  0  0  0  0  0  0  0  0
    5.9050   29.6600  184.8130 C   0  0  0  0  0  0  0  0  0  0  0  0
    3.2090   27.9580  188.2260 C   0  0  0  0  0  0  0  0  0  0  0  0
    2.4840   29.1300  188.0840 O   0  0  0  0  0  1  0  0  0  0  0  0
    3.1360   27.2430  189.3610 N   0  0  0  0  0  0  0  0  0  0  0  0
    2.4300   27.4900  190.4530 N   0  0  0  0  0  0  0  0  0  0  0  0
    1.6690   27.3680  193.1370 H   0  0  0  0  0  0  0  0  0  0  0  0
    1.8580   25.6180  193.2180 H   0  0  0  0  0  0  0  0  0  0  0  0
    4.7043   25.5764  185.6330 H   0  0  0  0  0  0  0  0  0  0  0  0
    7.4138   26.0166  185.1493 H   0  0  0  0  0  0  0  0  0  0  0  0
    7.5227   27.0079  186.3527 H   0  0  0  0  0  0  0  0  0  0  0  0
    6.9477   23.8580  186.4956 H   0  0  0  0  0  0  0  0  0  0  0  0
    6.9759   24.4658  187.9235 H   0  0  0  0  0  0  0  0  0  0  0  0
    4.2940   27.6036  185.1542 H   0  0  0  0  0  0  0  0  0  0  0  0
    3.1869   28.8509  186.0159 H   0  0  0  0  0  0  0  0  0  0  0  0
    4.8095   29.8965  187.9672 H   0  0  0  0  0  0  0  0  0  0  0  0
    6.4378   31.7043  187.9948 H   0  0  0  0  0  0  0  0  0  0  0  0
    5.7620   29.0809  183.8888 H   0  0  0  0  0  0  0  0  0  0  0  0
  1  2  1  0
  2  3  1  0
  3  4  2  0
  4  5  1  0
  5  6  2  0
  6  7  1  0
  7  8  1  0
  8  9  1  0
  6 10  1  0
 10 11  1  0
 11 12  1  0
 12 13  2  0
 13 14  1  0
 14 15  2  0
 15 16  1  0
 15 17  1  0
 17 18  1  0
 17 19  2  0
 10 20  2  0
 20 21  1  0
 20 22  1  0
 22 23  1  0
 23  2  2  0
 22  4  1  0
  9  7  1  0
 19 12  1  0
  1 24  1  0
  1 25  1  0
  7 26  1  0
  8 27  1  0
  8 28  1  0
  9 29  1  0
  9 30  1  0
 11 31  1  0
 11 32  1  0
 13 33  1  0
 14 34  1  0
 19 35  1  0
M  CHG  1  21  -1
M  END
$$$$

     RDKit          3D

 39 41  0  0  0  0  0  0  0  0999 V2000
    0.6460   26.0550  190.2600 O   0  0  0  0  0  0  0  0  0  0  0  0
    1.6990   26.6970  190.3210 C   0  0  0  0  0  0  0  0  0  0  0  0
    1.6270   27.9690  189.6990 O   0  0  0  0  0  1  0  0  0  0  0  0
    2.9290   26.2860  190.9370 C   0  0  0  0  0  0  0  0  0  0  0  0
    2.9850   26.4270  192.3280 C   0  0  0  0  0  0  0  0  0  0  0  0
    4.1000   26.0380  193.0240 C   0  0  0  0  0  0  0  0  0  0  0  0
    5.1600   25.5110  192.3560 C   0  0  0  0  0  0  0  0  0  0  0  0
    5.0940   25.3790  191.0000 C   0  0  0  0  0  0  0  0  0  0  0  0
    3.9740   25.7620  190.2230 C   0  0  0  0  0  0  0  0  0  0  0  0
    4.0650   25.5660  188.8750 O   0  0  0  0  0  0  0  0  0  0  0  0
    5.0690   25.3630  188.0100 C   0  0  0  0  0  0  0  0  0  0  0  0
    5.9990   24.3420  188.2320 C   0  0  0  0  0  0  0  0  0  0  0  0
    7.0270   24.1230  187.3470 C   0  0  0  0  0  0  0  0  0  0  0  0
    7.1630   24.9130  186.2100 C   0  0  0  0  0  0  0  0  0  0  0  0
    8.4580   24.6610  185.0650 Cl  0  0  0  0  0  0  0  0  0  0  0  0
    6.2380   25.9150  186.0070 C   0  0  0  0  0  0  0  0  0  0  0  0
    5.1960   26.1650  186.8700 C   0  0  0  0  0  0  0  0  0  0  0  0
    4.2930   27.2390  186.6490 N   0  0  0  0  0  2  0  0  0  0  0  0
    4.7210   28.7650  187.3780 S   0  0  0  0  0  6  0  0  0  0  0  0
    5.5550   28.5930  188.6000 O   0  0  0  0  0  0  0  0  0  0  0  0
    3.5230   29.5850  187.7150 O   0  0  0  0  0  0  0  0  0  0  0  0
    5.7610   29.6240  186.2250 C   0  0  0  0  0  0  0  0  0  0  0  0
    5.8600   29.2190  184.9320 C   0  0  0  0  0  0  0  0  0  0  0  0
    6.6780   29.8910  184.0180 C   0  0  0  0  0  0  0  0  0  0  0  0
    7.3880   30.9760  184.4410 C   0  0  0  0  0  0  0  0  0  0  0  0
    8.4410   31.8900  183.3770 Cl  0  0  0  0  0  0  0  0  0  0  0  0
    7.2860   31.3820  185.7400 C   0  0  0  0  0  0  0  0  0  0  0  0
    8.1750   32.7770  186.3590 Cl  0  0  0  0  0  0  0  0  0  0  0  0
    6.4700   30.7110  186.6550 C   0  0  0  0  0  0  0  0  0  0  0  0
    2.1267   26.8537  192.8677 H   0  0  0  0  0  0  0  0  0  0  0  0
    4.1367   26.1517  194.1175 H   0  0  0  0  0  0  0  0  0  0  0  0
    6.0606   25.1946  192.9026 H   0  0  0  0  0  0  0  0  0  0  0  0
    5.9625   24.9495  190.4792 H   0  0  0  0  0  0  0  0  0  0  0  0
    5.9063   23.7070  189.1254 H   0  0  0  0  0  0  0  0  0  0  0  0
    7.7490   23.3157  187.5393 H   0  0  0  0  0  0  0  0  0  0  0  0
    6.3380   26.5455  185.1112 H   0  0  0  0  0  0  0  0  0  0  0  0
    5.2844   28.3437  184.5967 H   0  0  0  0  0  0  0  0  0  0  0  0
    6.7476   29.5499  182.9746 H   0  0  0  0  0  0  0  0  0  0  0  0
    6.3997   31.0503  187.6990 H   0  0  0  0  0  0  0  0  0  0  0  0
  1  2  2  0
  2  3  1  0
  2  4  1  0
  4  5  2  0
  5  6  1  0
  6  7  2  0
  7  8  1  0
  8  9  2  0
  9 10  1  0
 10 11  1  0
 11 12  2  0
 12 13  1  0
 13 14  2  0
 14 15  1  0
 14 16  1  0
 16 17  2  0
 17 18  1  0
 18 19  1  0
 19 20  2  0
 19 21  2  0
 19 22  1  0
 22 23  2  0
 23 24  1  0
 24 25  2  0
 25 26  1  0
 25 27  1  0
 27 28  1  0
 27 29  2  0
  9  4  1  0
 17 11  1  0
 29 22  1  0
  5 30  1  0
  6 31  1  0
  7 32  1  0
  8 33  1  0
 12 34  1  0
 13 35  1  0
 16 36  1  0
 23 37  1  0
 24 38  1  0
 29 39  1  0
M  CHG  2   3  -1  18  -1
M  END
$$$$

     RDKit          3D

 40 42  0  0  0  0  0  0  0  0999 V2000
    6.3230   25.7110  184.7600 C   0  0  0  0  0  0  0  0  0  0  0  0
    5.9990   27.1780  184.6410 C   0  0  0  0  0  0  0  0  0  0  0  0
    6.2280   27.8950  185.9600 C   0  0  1  0  0  0  0  0  0  0  0  0
    6.6250   29.3090  185.6900 C   0  0  0  0  0  0  0  0  0  0  0  0
    7.0110   30.1480  186.7160 C   0  0  0  0  0  0  0  0  0  0  0  0
    7.4100   31.4560  186.5400 C   0  0  0  0  0  0  0  0  0  0  0  0
    7.4320   31.9690  185.2620 C   0  0  0  0  0  0  0  0  0  0  0  0
    7.8220   33.2580  185.0530 F   0  0  0  0  0  0  0  0  0  0  0  0
    7.0550   31.1670  184.2070 C   0  0  0  0  0  0  0  0  0  0  0  0
    7.0880   31.7080  182.9580 F   0  0  0  0  0  0  0  0  0  0  0  0
    6.6630   29.8690  184.4320 C   0  0  0  0  0  0  0  0  0  0  0  0
    5.1830   27.7330  186.9010 N   0  0  0  0  0  0  0  0  0  0  0  0
    5.2940   27.2090  188.1610 C   0  0  0  0  0  0  0  0  0  0  0  0
    6.5470   26.7660  188.7630 C   0  0  0  0  0  0  0  0  0  0  0  0
    7.1580   27.4350  189.6530 O   0  0  0  0  0  0  0  0  0  0  0  0
    7.1860   25.5880  188.4390 O   0  0  0  0  0  0  0  0  0  0  0  0
    6.4970   24.3860  188.3090 C   0  0  0  0  0  0  0  0  0  0  0  0
    4.1090   27.1940  188.7940 C   0  0  0  0  0  0  0  0  0  0  0  0
    3.5790   26.6640  190.0430 C   0  0  0  0  0  0  0  0  0  0  0  0
    2.3750   26.1270  190.3740 C   0  0  0  0  0  0  0  0  0  0  0  0
    2.4110   25.7890  191.7320 C   0  0  0  0  0  0  0  0  0  0  0  0
    3.6220   26.1360  192.1560 N   0  0  0  0  0  0  0  0  0  0  0  0
    4.2720   26.6270  191.1970 O   0  0  0  0  0  0  0  0  0  0  0  0
    3.2130   27.7410  187.8900 N   0  0  0  0  0  2  0  0  0  0  0  0
    3.8730   28.0480  186.7840 C   0  0  0  0  0  0  0  0  0  0  0  0
    3.1860   28.7090  185.4730 S   0  0  0  0  0  0  0  0  0  0  0  0
    6.3842   25.4340  185.8228 H   0  0  0  0  0  0  0  0  0  0  0  0
    5.5336   25.1204  184.2720 H   0  0  0  0  0  0  0  0  0  0  0  0
    7.2877   25.5078  184.2720 H   0  0  0  0  0  0  0  0  0  0  0  0
    6.6432   27.6273  183.8708 H   0  0  0  0  0  0  0  0  0  0  0  0
    4.9391   27.2814  184.3655 H   0  0  0  0  0  0  0  0  0  0  0  0
    7.0679   27.4093  186.4784 H   0  0  0  0  0  0  0  0  0  0  0  0
    6.9995   29.7471  187.7403 H   0  0  0  0  0  0  0  0  0  0  0  0
    7.7039   32.0754  187.4002 H   0  0  0  0  0  0  0  0  0  0  0  0
    6.3671   29.2513  183.5712 H   0  0  0  0  0  0  0  0  0  0  0  0
    6.2673   23.9852  189.3073 H   0  0  0  0  0  0  0  0  0  0  0  0
    5.5603   24.5580  187.7585 H   0  0  0  0  0  0  0  0  0  0  0  0
    7.1187   23.6647  187.7585 H   0  0  0  0  0  0  0  0  0  0  0  0
    1.5222   25.9833  189.6942 H   0  0  0  0  0  0  0  0  0  0  0  0
    1.6051   25.3316  192.3246 H   0  0  0  0  0  0  0  0  0  0  0  0
  1  2  1  0
  2  3  1  0
  3  4  1  0
  4  5  2  0
  5  6  1  0
  6  7  2  0
  7  8  1  0
  7  9  1  0
  9 10  1  0
  9 11  2  0
  3 12  1  0
 12 13  1  0
 13 14  1  0
 14 15  2  0
 14 16  1  0
 16 17  1  0
 13 18  2  0
 18 19  1  0
 19 20  2  0
 20 21  1  0
 21 22  2  0
 22 23  1  0
 18 24  1  0
 24 25  1  0
 25 26  2  0
 11  4  1  0
 25 12  1  0
 23 19  1  0
  1 27  1  0
  1 28  1  0
  1 29  1  0
  2 30  1  0
  2 31  1  0
  3 32  1  1
  5 33  1  0
  6 34  1  0
 11 35  1  0
 17 36  1  0
 17 37  1  0
 17 38  1  0
 20 39  1  0
 21 40  1  0
M  CHG  1  24  -1
M  END
$$$$

     RDKit          3D

 45 48  0  0  0  0  0  0  0  0999 V2000
    7.6800   24.2610  184.2830 C   0  0  0  0  0  0  0  0  0  0  0  0
    7.4110   24.9610  185.5670 C   0  0  0  0  0  0  0  0  0  0  0  0
    8.4200   24.9710  186.5040 C   0  0  0  0  0  0  0  0  0  0  0  0
    8.1870   25.6030  187.6550 N   0  0  0  0  0  0  0  0  0  0  0  0
    6.9900   26.2340  187.9300 C   0  0  0  0  0  0  0  0  0  0  0  0
    6.8820   26.9460  189.1910 C   0  0  0  0  0  0  0  0  0  0  0  0
    7.0060   28.1700  189.2530 O   0  0  0  0  0  0  0  0  0  0  0  0
    6.6210   26.2040  190.4140 C   0  0  0  0  0  0  0  0  0  0  0  0
    7.5980   25.6400  191.1330 N   0  0  0  0  0  0  0  0  0  0  0  0
    7.3660   24.9610  192.2720 C   0  0  0  0  0  0  0  0  0  0  0  0
    6.0890   24.8230  192.7390 N   0  0  0  0  0  0  0  0  0  0  0  0
    5.0520   25.3660  192.0640 C   0  0  0  0  0  0  0  0  0  0  0  0
    3.7200   25.3990  192.2650 N   0  0  0  0  0  0  0  0  0  0  0  0
    3.1100   26.0790  191.2880 C   0  0  0  0  0  0  0  0  0  0  0  0
    4.0960   26.5000  190.4200 C   0  0  0  0  0  0  0  0  0  0  0  0
    5.3320   26.0660  190.8840 C   0  0  0  0  0  0  0  0  0  0  0  0
    5.9690   26.2470  187.0370 C   0  0  0  0  0  0  0  0  0  0  0  0
    4.7180   26.8180  187.2560 N   0  0  0  0  0  2  0  0  0  0  0  0
    3.9660   28.1420  186.5320 S   0  0  0  0  0  6  0  0  0  0  0  0
    2.9280   28.6610  187.5320 O   0  0  0  0  0  0  0  0  0  0  0  0
    3.2550   27.9290  185.2570 O   0  0  0  0  0  0  0  0  0  0  0  0
    5.1330   29.4690  186.3620 C   0  0  0  0  0  0  0  0  0  0  0  0
    5.3270   30.3460  187.4120 C   0  0  0  0  0  0  0  0  0  0  0  0
    6.2390   31.3610  187.2640 C   0  0  0  0  0  0  0  0  0  0  0  0
    6.9690   31.5420  186.1140 C   0  0  0  0  0  0  0  0  0  0  0  0
    8.1310   32.8590  185.9600 Cl  0  0  0  0  0  0  0  0  0  0  0  0
    6.7800   30.6730  185.0730 C   0  0  0  0  0  0  0  0  0  0  0  0
    7.5410   30.7870  183.7830 C   0  0  0  0  0  0  0  0  0  0  0  0
    8.8850   31.0720  184.0590 F   0  0  0  0  0  0  0  0  0  0  0  0
    7.5350   29.6110  183.0810 F   0  0  0  0  0  0  0  0  0  0  0  0
    7.0390   31.8270  183.0290 F   0  0  0  0  0  0  0  0  0  0  0  0
    5.8690   29.6530  185.2040 C   0  0  0  0  0  0  0  0  0  0  0  0
    6.2100   25.5780  185.8130 C   0  0  0  0  0  0  0  0  0  0  0  0
    8.0676   23.2524  184.4894 H   0  0  0  0  0  0  0  0  0  0  0  0
    6.7473   24.1842  183.7049 H   0  0  0  0  0  0  0  0  0  0  0  0
    8.4241   24.8285  183.7049 H   0  0  0  0  0  0  0  0  0  0  0  0
    9.3829   24.4758  186.3102 H   0  0  0  0  0  0  0  0  0  0  0  0
    8.2051   24.5168  192.8274 H   0  0  0  0  0  0  0  0  0  0  0  0
    3.2270   24.9490  193.0860 H   0  0  0  0  0  0  0  0  0  0  0  0
    2.0301   26.2664  191.1947 H   0  0  0  0  0  0  0  0  0  0  0  0
    3.9300   27.0869  189.5046 H   0  0  0  0  0  0  0  0  0  0  0  0
    4.7613   30.2329  188.3486 H   0  0  0  0  0  0  0  0  0  0  0  0
    6.3919   32.0585  188.1007 H   0  0  0  0  0  0  0  0  0  0  0  0
    5.7197   28.9607  184.3623 H   0  0  0  0  0  0  0  0  0  0  0  0
    5.4216   25.5522  185.0463 H   0  0  0  0  0  0  0  0  0  0  0  0
  1  2  1  0
  2  3  2  0
  3  4  1  0
  4  5  2  0
  5  6  1  0
  6  7  2  0
  6  8  1  0
  8  9  2  0
  9 10  1  0
 10 11  2  0
 11 12  1  0
 12 13  1  0
 13 14  1  0
 14 15  2  0
 15 16  1  0
  5 17  1  0
 17 18  1  0
 18 19  1  0
 19 20  2  0
 19 21  2  0
 19 22  1  0
 22 23  2  0
 23 24  1  0
 24 25  2  0
 25 26  1  0
 25 27  1  0
 27 28  1  0
 28 29  1  0
 28 30  1  0
 28 31  1  0
 27 32  2  0
 17 33  2  0
 33  2  1  0
 16  8  1  0
 32 22  1  0
 16 12  2  0
  1 34  1  0
  1 35  1  0
  1 36  1  0
  3 37  1  0
 10 38  1  0
 13 39  1  0
 14 40  1  0
 15 41  1  0
 23 42  1  0
 24 43  1  0
 32 44  1  0
 33 45  1  0
M  CHG  1  18  -1
M  END
$$$$
