Supermolecule
     RDKit          3D

 76 83  0  0  0  0  0  0  0  0999 V2000
    5.9630   26.2830  191.4540 C   0  0  0  0  0  0  0  0  0  0  0  0
    4.7420   26.3120  190.5760 C   0  0  0  0  0  0  0  0  0  0  0  0
    3.8210   25.4950  190.8050 O   0  0  0  0  0  0  0  0  0  0  0  0
    4.6040   27.2560  189.4780 C   0  0  0  0  0  0  0  0  0  0  0  0
    3.4660   27.8830  189.2170 C   0  0  0  0  0  0  0  0  0  0  0  0
    2.2590   27.6960  189.9300 O   0  0  0  0  0  0  0  0  0  0  0  0
    3.6770   28.7740  188.0940 C   0  0  0  0  0  0  0  0  0  0  0  0
    2.7990   29.5250  187.5640 O   0  0  0  0  0  0  0  0  0  0  0  0
    5.0120   28.6550  187.7040 N   0  0  0  0  0  0  0  0  0  0  0  0
    5.7240   29.3710  186.6780 C   0  0  0  0  0  0  0  0  0  0  0  0
    6.5960   30.3870  187.0770 C   0  0  0  0  0  0  0  0  0  0  0  0
    7.3000   31.1140  186.1430 C   0  0  0  0  0  0  0  0  0  0  0  0
    7.1490   30.8430  184.8010 C   0  0  0  0  0  0  0  0  0  0  0  0
    8.0510   31.7820  183.6220 Cl  0  0  0  0  0  0  0  0  0  0  0  0
    6.2820   29.8330  184.4030 C   0  0  0  0  0  0  0  0  0  0  0  0
    5.5820   29.1150  185.3560 C   0  0  0  0  0  0  0  0  0  0  0  0
    4.7390   28.1330  184.9310 F   0  0  0  0  0  0  0  0  0  0  0  0
    5.6520   27.6610  188.5450 C   0  0  2  0  0  0  0  0  0  0  0  0
    6.0560   26.5680  187.5820 C   0  0  0  0  0  0  0  0  0  0  0  0
    5.1080   25.4190  187.4860 C   0  0  0  0  0  0  0  0  0  0  0  0
    5.8080   24.1060  187.1970 C   0  0  0  0  0  0  0  0  0  0  0  0
    6.8980   24.2030  186.1760 C   0  0  0  0  0  0  0  0  0  0  0  0
    7.7670   25.4360  186.3320 C   0  0  0  0  0  0  0  0  0  0  0  0
    7.4460   26.0380  187.7300 C   0  0  0  0  0  0  0  0  0  0  0  0
    1.9960   26.4930  192.6850 N   0  0  0  0  0  0  0  0  0  0  0  0
    2.6000   26.5480  191.3910 C   0  0  0  0  0  0  0  0  0  0  0  0
    3.4670   25.6630  190.8400 N   0  0  0  0  0  0  0  0  0  0  0  0
    3.7930   26.0990  189.5880 C   0  0  0  0  0  0  0  0  0  0  0  0
    4.5810   25.6340  188.6080 N   0  0  0  0  0  0  0  0  0  0  0  0
    4.7260   26.2810  187.4150 C   0  0  0  0  0  0  0  0  0  0  0  0
    5.5400   25.6780  186.3410 C   0  0  0  0  0  0  0  0  0  0  0  0
    6.9600   26.0850  186.1490 C   0  0  0  0  0  0  0  0  0  0  0  0
    6.7020   24.8400  186.9260 C   0  0  0  0  0  0  0  0  0  0  0  0
    4.0460   27.4540  187.2040 C   0  0  0  0  0  0  0  0  0  0  0  0
    4.1300   28.2850  186.0020 C   0  0  0  0  0  0  0  0  0  0  0  0
    5.1530   29.3300  185.9110 C   0  0  0  0  0  0  0  0  0  0  0  0
    5.3840   30.1110  187.0540 C   0  0  0  0  0  0  0  0  0  0  0  0
    6.2900   31.1210  187.0740 C   0  0  0  0  0  0  0  0  0  0  0  0
    7.0270   31.4210  185.9470 C   0  0  0  0  0  0  0  0  0  0  0  0
    8.1900   32.7280  185.9260 Cl  0  0  0  0  0  0  0  0  0  0  0  0
    6.8330   30.6830  184.8090 C   0  0  0  0  0  0  0  0  0  0  0  0
    7.7460   31.0050  183.3470 Cl  0  0  0  0  0  0  0  0  0  0  0  0
    5.9050   29.6600  184.8130 C   0  0  0  0  0  0  0  0  0  0  0  0
    3.2090   27.9580  188.2260 C   0  0  0  0  0  0  0  0  0  0  0  0
    2.4840   29.1300  188.0840 O   0  0  0  0  0  0  0  0  0  0  0  0
    3.1360   27.2430  189.3610 N   0  0  0  0  0  0  0  0  0  0  0  0
    2.4300   27.4900  190.4530 N   0  0  0  0  0  0  0  0  0  0  0  0
    0.6460   26.0550  190.2600 O   0  0  0  0  0  0  0  0  0  0  0  0
    1.6990   26.6970  190.3210 C   0  0  0  0  0  0  0  0  0  0  0  0
    1.6270   27.9690  189.6990 O   0  0  0  0  0  0  0  0  0  0  0  0
    2.9290   26.2860  190.9370 C   0  0  0  0  0  0  0  0  0  0  0  0
    2.9850   26.4270  192.3280 C   0  0  0  0  0  0  0  0  0  0  0  0
    4.1000   26.0380  193.0240 C   0  0  0  0  0  0  0  0  0  0  0  0
    5.1600   25.5110  192.3560 C   0  0  0  0  0  0  0  0  0  0  0  0
    5.0940   25.3790  191.0000 C   0  0  0  0  0  0  0  0  0  0  0  0
    3.9740   25.7620  190.2230 C   0  0  0  0  0  0  0  0  0  0  0  0
    4.0650   25.5660  188.8750 O   0  0  0  0  0  0  0  0  0  0  0  0
    5.0690   25.3630  188.0100 C   0  0  0  0  0  0  0  0  0  0  0  0
    5.9990   24.3420  188.2320 C   0  0  0  0  0  0  0  0  0  0  0  0
    7.0270   24.1230  187.3470 C   0  0  0  0  0  0  0  0  0  0  0  0
    7.1630   24.9130  186.2100 C   0  0  0  0  0  0  0  0  0  0  0  0
    8.4580   24.6610  185.0650 Cl  0  0  0  0  0  0  0  0  0  0  0  0
    6.2380   25.9150  186.0070 C   0  0  0  0  0  0  0  0  0  0  0  0
    5.1960   26.1650  186.8700 C   0  0  0  0  0  0  0  0  0  0  0  0
    4.2930   27.2390  186.6490 N   0  0  0  0  0  0  0  0  0  0  0  0
    4.7210   28.7650  187.3780 S   0  0  0  0  0  6  0  0  0  0  0  0
    5.5550   28.5930  188.6000 O   0  0  0  0  0  0  0  0  0  0  0  0
    3.5230   29.5850  187.7150 O   0  0  0  0  0  0  0  0  0  0  0  0
    5.7610   29.6240  186.2250 C   0  0  0  0  0  0  0  0  0  0  0  0
    5.8600   29.2190  184.9320 C   0  0  0  0  0  0  0  0  0  0  0  0
    6.6780   29.8910  184.0180 C   0  0  0  0  0  0  0  0  0  0  0  0
    7.3880   30.9760  184.4410 C   0  0  0  0  0  0  0  0  0  0  0  0
    8.4410   31.8900  183.3770 Cl  0  0  0  0  0  0  0  0  0  0  0  0
    7.2860   31.3820  185.7400 C   0  0  0  0  0  0  0  0  0  0  0  0
    8.1750   32.7770  186.3590 Cl  0  0  0  0  0  0  0  0  0  0  0  0
    6.4700   30.7110  186.6550 C   0  0  0  0  0  0  0  0  0  0  0  0
  1  2  1  0
  2  3  2  0
  2  4  1  0
  4  5  2  0
  5  6  1  0
  5  7  1  0
  7  8  2  0
  7  9  1  0
  9 10  1  0
 10 11  2  0
 11 12  1  0
 12 13  2  0
 13 14  1  0
 13 15  1  0
 15 16  2  0
 16 17  1  0
  9 18  1  0
 18 19  1  6
 19 20  1  0
 20 21  1  0
 21 22  1  0
 22 23  1  0
 23 24  1  0
 18  4  1  0
 24 19  1  0
 16 10  1  0
 25 26  1  0
 26 27  1  0
 27 28  2  0
 28 29  1  0
 29 30  2  0
 30 31  1  0
 31 32  1  0
 32 33  1  0
 30 34  1  0
 34 35  1  0
 35 36  1  0
 36 37  2  0
 37 38  1  0
 38 39  2  0
 39 40  1  0
 39 41  1  0
 41 42  1  0
 41 43  2  0
 34 44  2  0
 44 45  1  0
 44 46  1  0
 46 47  1  0
 47 26  2  0
 46 28  1  0
 33 31  1  0
 43 36  1  0
 48 49  2  0
 49 50  1  0
 49 51  1  0
 51 52  2  0
 52 53  1  0
 53 54  2  0
 54 55  1  0
 55 56  2  0
 56 57  1  0
 57 58  1  0
 58 59  2  0
 59 60  1  0
 60 61  2  0
 61 62  1  0
 61 63  1  0
 63 64  2  0
 64 65  1  0
 65 66  1  0
 66 67  2  0
 66 68  2  0
 66 69  1  0
 69 70  2  0
 70 71  1  0
 71 72  2  0
 72 73  1  0
 72 74  1  0
 74 75  1  0
 74 76  2  0
 56 51  1  0
 64 58  1  0
 76 69  1  0
M  CHG  4   6  -1  45  -1  50  -1  65  -1
M  END
>  <_RefNames>  (1) 
["ref_1", "ref_2", "ref_3"]

>  <_NumRefs>  (1) 
3

$$$$
